%rwf=/Storage01/hugo/chalcona
%int=/Storage01/hugo/chalcona
%d2e=/Storage01/hugo/chalcona
%nosave
%nprocshared=8
%mem=32GB
%chk=acet
# opt freq=noraman M08HX/aug-cc-pvdz volume scrf=(smd,solvent=water) scf=xqc 

acet

0 1
 C                   0.208541	-0.065515	0.000004
 C                   -0.583457	-1.228155	0.000009
 C                   -1.973161	-1.136469	-0.000016
 C                   -2.591982	0.119429	-0.000046
 C                   -1.814913	1.281143	-0.000052
 C                   -0.422081	1.191147	-0.000026
 C                   1.694973	-0.194599	0.000038
 C                   2.547252	1.048159	0.000041
 O                   2.227055	-1.311573	0.000041
 H                   2.334492	1.662729	0.882664
 H                   -0.101547	-2.200382	0.000033
 H                   -2.575503	-2.040492	-0.000012
 H                   -2.291989	2.256966	-0.000075
 H                   0.166478	2.102376	-0.000032
 H                   2.334498	1.662728	-0.882585
 H                   3.602288	0.766905	0.000045
 H                   -3.676194	0.190910	-0.000065


