%rwf=/Storage01/hugo/chalcona
%int=/Storage01/hugo/chalcona
%d2e=/Storage01/hugo/chalcona
%nosave
%nprocshared=8
%mem=32GB
%chk=benz
# opt freq=noraman M08HX/aug-cc-pvdz volume scrf=(smd,solvent=water) scf=xqc 

benz

0 1
 C                   1.341528	-1.328254	-0.000067
 C                   -0.033526	-1.115871	0.000186
 C                   -0.537541	0.197714	0.000323
 C                   0.346964	1.289020	0.000173
 C                   1.725110	1.072313	-0.000085
 C                   2.220293	-0.235130	-0.000208
 H                   1.735317	-2.340520	-0.000167
 H                   -0.722668	-1.955151	0.000313
 H                   -0.051419	2.300724	0.000268
 H                   2.409456	1.915651	-0.000195
 H                   3.293248	-0.406640	-0.000412
 C                   -1.980319	0.468147	0.000677
 O                   -2.862198	-0.392210	-0.000641
 H                   -2.261413	1.535988	-0.000673


